PAOr_pre.xyz
 OpenBabel04162509093D

 92 91  0  0  1  0  0  0  0  0999 V2000
   10.9082   -1.0719   -2.0104 C   0  0  0  0  0  0  0  0  0  0  0  0
    9.5122   -1.6438   -2.2782 C   0  0  0  0  0  0  0  0  0  0  0  0
    8.5016   -1.3200   -1.1698 C   0  0  0  0  0  0  0  0  0  0  0  0
    7.1023   -1.8906   -1.4411 C   0  0  0  0  0  0  0  0  0  0  0  0
    6.0375   -1.5294   -0.3897 C   0  0  0  0  0  0  0  0  0  0  0  0
    6.2587   -2.1782    0.9845 C   0  0  0  0  0  0  0  0  0  0  0  0
    5.2479   -1.7919    2.0805 C   0  0  0  0  0  0  0  0  0  0  0  0
    3.7788   -2.1985    1.8227 C   0  0  0  0  0  0  0  0  0  0  0  0
    2.9097   -1.1077    1.1748 C   0  0  0  0  0  0  0  0  0  0  0  0
    1.4702   -1.5762    0.9278 C   0  0  0  0  0  0  0  0  0  0  0  0
    0.4456   -0.4544    0.5788 C   0  0  2  0  0  0  0  0  0  0  0  0
   -0.9747   -1.0269    0.2935 C   0  0  0  0  0  0  0  0  0  0  0  0
   -1.5957   -1.9086    1.3983 C   0  0  2  0  0  0  0  0  0  0  0  0
   -2.9160   -2.5606    0.9159 C   0  0  0  0  0  0  0  0  0  0  0  0
   -4.0817   -1.6135    0.5920 C   0  0  0  0  0  0  0  0  0  0  0  0
   -5.3459   -2.3627    0.1477 C   0  0  0  0  0  0  0  0  0  0  0  0
   -6.5242   -1.4364   -0.1797 C   0  0  0  0  0  0  0  0  0  0  0  0
   -7.7879   -2.1845   -0.6239 C   0  0  0  0  0  0  0  0  0  0  0  0
   -8.9669   -1.2586   -0.9498 C   0  0  0  0  0  0  0  0  0  0  0  0
  -10.2306   -2.0061   -1.3945 C   0  0  0  0  0  0  0  0  0  0  0  0
  -11.4030   -1.0740   -1.7172 C   0  0  0  0  0  0  0  0  0  0  0  0
   -1.7728   -1.1544    2.7249 C   0  0  0  0  0  0  0  0  0  0  0  0
    0.9625    0.3210   -0.7154 C   0  0  0  0  0  0  0  0  0  0  0  0
    0.0554    1.3882   -1.3394 C   0  0  0  0  0  0  0  0  0  0  0  0
   -0.1340    2.6620   -0.5050 C   0  0  0  0  0  0  0  0  0  0  0  0
   -0.9855    3.7189   -1.2230 C   0  0  0  0  0  0  0  0  0  0  0  0
   -1.2692    4.9843   -0.3963 C   0  0  0  0  0  0  0  0  0  0  0  0
   -0.0337    5.8400   -0.0830 C   0  0  0  0  0  0  0  0  0  0  0  0
   -0.3689    7.1327    0.6728 C   0  0  0  0  0  0  0  0  0  0  0  0
    0.8634    7.9876    0.9858 C   0  0  0  0  0  0  0  0  0  0  0  0
   11.6050   -1.3196   -2.8194 H   0  0  0  0  0  0  0  0  0  0  0  0
   11.3269   -1.4686   -1.0772 H   0  0  0  0  0  0  0  0  0  0  0  0
   10.8781    0.0210   -1.9197 H   0  0  0  0  0  0  0  0  0  0  0  0
    9.5804   -2.7345   -2.3979 H   0  0  0  0  0  0  0  0  0  0  0  0
    9.1354   -1.2569   -3.2358 H   0  0  0  0  0  0  0  0  0  0  0  0
    8.4298   -0.2278   -1.0534 H   0  0  0  0  0  0  0  0  0  0  0  0
    8.8875   -1.7023   -0.2147 H   0  0  0  0  0  0  0  0  0  0  0  0
    7.1673   -2.9857   -1.5287 H   0  0  0  0  0  0  0  0  0  0  0  0
    6.7628   -1.5296   -2.4226 H   0  0  0  0  0  0  0  0  0  0  0  0
    5.0560   -1.8317   -0.7774 H   0  0  0  0  0  0  0  0  0  0  0  0
    5.9981   -0.4354   -0.2759 H   0  0  0  0  0  0  0  0  0  0  0  0
    7.2630   -1.9233    1.3484 H   0  0  0  0  0  0  0  0  0  0  0  0
    6.2502   -3.2724    0.8641 H   0  0  0  0  0  0  0  0  0  0  0  0
    5.2984   -0.7077    2.2588 H   0  0  0  0  0  0  0  0  0  0  0  0
    5.5849   -2.2618    3.0138 H   0  0  0  0  0  0  0  0  0  0  0  0
    3.3118   -2.4768    2.7776 H   0  0  0  0  0  0  0  0  0  0  0  0
    3.7545   -3.1091    1.2050 H   0  0  0  0  0  0  0  0  0  0  0  0
    3.3706   -0.7786    0.2367 H   0  0  0  0  0  0  0  0  0  0  0  0
    2.8816   -0.2308    1.8344 H   0  0  0  0  0  0  0  0  0  0  0  0
    1.1119   -2.0718    1.8386 H   0  0  0  0  0  0  0  0  0  0  0  0
    1.4464   -2.3369    0.1342 H   0  0  0  0  0  0  0  0  0  0  0  0
    0.4145    0.5046    1.5575 O   0  0  0  0  0  1  0  0  0  0  0  0
   -0.9309   -1.6069   -0.6397 H   0  0  0  0  0  0  0  0  0  0  0  0
   -1.6365   -0.1745    0.1103 H   0  0  0  0  0  0  0  0  0  0  0  0
   -0.9123   -2.7483    1.5863 H   0  0  0  0  0  0  0  0  0  0  0  0
   -3.2464   -3.2681    1.6906 H   0  0  0  0  0  0  0  0  0  0  0  0
   -2.6991   -3.1693    0.0255 H   0  0  0  0  0  0  0  0  0  0  0  0
   -3.7889   -0.9108   -0.2004 H   0  0  0  0  0  0  0  0  0  0  0  0
   -4.3214   -1.0001    1.4711 H   0  0  0  0  0  0  0  0  0  0  0  0
   -5.6466   -3.0672    0.9376 H   0  0  0  0  0  0  0  0  0  0  0  0
   -5.1127   -2.9788   -0.7337 H   0  0  0  0  0  0  0  0  0  0  0  0
   -6.2236   -0.7315   -0.9692 H   0  0  0  0  0  0  0  0  0  0  0  0
   -6.7578   -0.8211    0.7020 H   0  0  0  0  0  0  0  0  0  0  0  0
   -8.0881   -2.8900    0.1652 H   0  0  0  0  0  0  0  0  0  0  0  0
   -7.5545   -2.7991   -1.5062 H   0  0  0  0  0  0  0  0  0  0  0  0
   -8.6676   -0.5525   -1.7389 H   0  0  0  0  0  0  0  0  0  0  0  0
   -9.2015   -0.6443   -0.0676 H   0  0  0  0  0  0  0  0  0  0  0  0
  -10.5300   -2.7114   -0.6061 H   0  0  0  0  0  0  0  0  0  0  0  0
   -9.9968   -2.6192   -2.2766 H   0  0  0  0  0  0  0  0  0  0  0  0
  -11.6833   -0.4726   -0.8435 H   0  0  0  0  0  0  0  0  0  0  0  0
  -12.2890   -1.6377   -2.0312 H   0  0  0  0  0  0  0  0  0  0  0  0
  -11.1461   -0.3794   -2.5266 H   0  0  0  0  0  0  0  0  0  0  0  0
   -0.8122   -0.8036    3.1184 H   0  0  0  0  0  0  0  0  0  0  0  0
   -2.2306   -1.8029    3.4824 H   0  0  0  0  0  0  0  0  0  0  0  0
   -2.4092   -0.2704    2.6065 H   0  0  0  0  0  0  0  0  0  0  0  0
    1.1589   -0.4729   -1.4482 H   0  0  0  0  0  0  0  0  0  0  0  0
    1.9263    0.7723   -0.4619 H   0  0  0  0  0  0  0  0  0  0  0  0
   -0.9226    0.9613   -1.5951 H   0  0  0  0  0  0  0  0  0  0  0  0
    0.5144    1.6628   -2.3014 H   0  0  0  0  0  0  0  0  0  0  0  0
    0.8547    3.0752   -0.2629 H   0  0  0  0  0  0  0  0  0  0  0  0
   -0.5957    2.4009    0.4553 H   0  0  0  0  0  0  0  0  0  0  0  0
   -1.9455    3.2640   -1.5076 H   0  0  0  0  0  0  0  0  0  0  0  0
   -0.4957    4.0052   -2.1664 H   0  0  0  0  0  0  0  0  0  0  0  0
   -1.7598    4.6974    0.5457 H   0  0  0  0  0  0  0  0  0  0  0  0
   -1.9967    5.6036   -0.9405 H   0  0  0  0  0  0  0  0  0  0  0  0
    0.4790    6.0936   -1.0236 H   0  0  0  0  0  0  0  0  0  0  0  0
    0.6860    5.2581    0.5091 H   0  0  0  0  0  0  0  0  0  0  0  0
   -0.8860    6.8797    1.6094 H   0  0  0  0  0  0  0  0  0  0  0  0
   -1.0838    7.7228    0.0816 H   0  0  0  0  0  0  0  0  0  0  0  0
    1.5805    7.4367    1.6069 H   0  0  0  0  0  0  0  0  0  0  0  0
    0.5907    8.9024    1.5246 H   0  0  0  0  0  0  0  0  0  0  0  0
    1.3835    8.2850    0.0667 H   0  0  0  0  0  0  0  0  0  0  0  0
  1 33  1  0  0  0  0
  1 32  1  0  0  0  0
  2  1  1  0  0  0  0
  2  3  1  0  0  0  0
  3 36  1  0  0  0  0
  3 37  1  0  0  0  0
  4  3  1  0  0  0  0
  4  5  1  0  0  0  0
  5 41  1  0  0  0  0
  5  6  1  0  0  0  0
  6 42  1  0  0  0  0
  6  7  1  0  0  0  0
  7 44  1  0  0  0  0
  7 45  1  0  0  0  0
  8  7  1  0  0  0  0
  8 46  1  0  0  0  0
  9  8  1  0  0  0  0
  9 49  1  0  0  0  0
 10  9  1  0  0  0  0
 10 50  1  0  0  0  0
 11 10  1  0  0  0  0
 11 52  1  1  0  0  0
 12 11  1  0  0  0  0
 12 13  1  0  0  0  0
 13 55  1  1  0  0  0
 13 22  1  0  0  0  0
 14 13  1  0  0  0  0
 14 56  1  0  0  0  0
 15 14  1  0  0  0  0
 15 59  1  0  0  0  0
 16 15  1  0  0  0  0
 16 60  1  0  0  0  0
 17 16  1  0  0  0  0
 17 63  1  0  0  0  0
 18 17  1  0  0  0  0
 18 64  1  0  0  0  0
 19 18  1  0  0  0  0
 19 67  1  0  0  0  0
 20 19  1  0  0  0  0
 20 68  1  0  0  0  0
 21 20  1  0  0  0  0
 21 70  1  0  0  0  0
 22 73  1  0  0  0  0
 22 74  1  0  0  0  0
 23 77  1  0  0  0  0
 23 11  1  0  0  0  0
 24 23  1  0  0  0  0
 24 25  1  0  0  0  0
 25 80  1  0  0  0  0
 25 81  1  0  0  0  0
 26 25  1  0  0  0  0
 26 27  1  0  0  0  0
 27 28  1  0  0  0  0
 27 84  1  0  0  0  0
 28 87  1  0  0  0  0
 28 29  1  0  0  0  0
 29 30  1  0  0  0  0
 29 88  1  0  0  0  0
 30 91  1  0  0  0  0
 30 90  1  0  0  0  0
 31  1  1  0  0  0  0
 34  2  1  0  0  0  0
 35  2  1  0  0  0  0
 38  4  1  0  0  0  0
 39  4  1  0  0  0  0
 40  5  1  0  0  0  0
 43  6  1  0  0  0  0
 47  8  1  0  0  0  0
 48  9  1  0  0  0  0
 51 10  1  0  0  0  0
 53 12  1  0  0  0  0
 54 12  1  0  0  0  0
 57 14  1  0  0  0  0
 58 15  1  0  0  0  0
 61 16  1  0  0  0  0
 62 17  1  0  0  0  0
 65 18  1  0  0  0  0
 66 19  1  0  0  0  0
 69 20  1  0  0  0  0
 71 21  1  0  0  0  0
 72 21  1  0  0  0  0
 75 22  1  0  0  0  0
 76 23  1  0  0  0  0
 78 24  1  0  0  0  0
 79 24  1  0  0  0  0
 82 26  1  0  0  0  0
 83 26  1  0  0  0  0
 85 27  1  0  0  0  0
 86 28  1  0  0  0  0
 89 29  1  0  0  0  0
 92 30  1  0  0  0  0
M  END
